<additional>
<vType id="passengerHW" vClass="passenger" accel="3.2" color="yellow" decel="3.5" length="4" maxSpeed="200" lcStrategic="1" lcSpeedGain="1" lcCooperative="1" lcSpeedGainLookahead="5" minGap="1.5" cc1="0.9" cc2="4" cc3="-8" cc4="-0.1" cc5="0.1" cc6="11.44" cc7="0.25" cc8="3.5" cc9="1.5"/>
	<calibrator id="typeCalib0" edge="-124940792#1" pos="0" type="passenger">
		<flow begin="18000" end="36000" type="passengerHW"/>
	</calibrator>
	<calibrator id="typeCalib1" edge="105899959" pos="0" type="passenger">
		<flow begin="18000" end="36000" type="passengerHW"/>
	</calibrator>
	<calibrator id="typeCalib2" edge="106731574#1" pos="0" type="passenger">
		<flow begin="18000" end="36000" type="passengerHW"/>
	</calibrator>
	<calibrator id="typeCalib3" edge="106927265" pos="0" type="passenger">
		<flow begin="18000" end="36000" type="passengerHW"/>
	</calibrator>
	<calibrator id="typeCalib4" edge="106927266" pos="0" type="passenger">
		<flow begin="18000" end="36000" type="passengerHW"/>
	</calibrator>
	<calibrator id="typeCalib5" edge="123889278" pos="0" type="passenger">
		<flow begin="18000" end="36000" type="passengerHW"/>
	</calibrator>
	<calibrator id="typeCalib6" edge="123889278.406" pos="0" type="passenger">
		<flow begin="18000" end="36000" type="passengerHW"/>
	</calibrator>
	<calibrator id="typeCalib7" edge="123889279" pos="0" type="passenger">
		<flow begin="18000" end="36000" type="passengerHW"/>
	</calibrator>
	<calibrator id="typeCalib8" edge="123889306" pos="0" type="passenger">
		<flow begin="18000" end="36000" type="passengerHW"/>
	</calibrator>
	<calibrator id="typeCalib9" edge="124045518#0" pos="0" type="passenger">
		<flow begin="18000" end="36000" type="passengerHW"/>
	</calibrator>
	<calibrator id="typeCalib10" edge="124045518#1" pos="0" type="passenger">
		<flow begin="18000" end="36000" type="passengerHW"/>
	</calibrator>
	<calibrator id="typeCalib11" edge="124272619" pos="0" type="passenger">
		<flow begin="18000" end="36000" type="passengerHW"/>
	</calibrator>
	<calibrator id="typeCalib12" edge="124272625" pos="0" type="passenger">
		<flow begin="18000" end="36000" type="passengerHW"/>
	</calibrator>
	<calibrator id="typeCalib13" edge="124272639" pos="0" type="passenger">
		<flow begin="18000" end="36000" type="passengerHW"/>
	</calibrator>
	<calibrator id="typeCalib14" edge="124940792#0" pos="0" type="passenger">
		<flow begin="18000" end="36000" type="passengerHW"/>
	</calibrator>
	<calibrator id="typeCalib15" edge="133397802" pos="0" type="passenger">
		<flow begin="18000" end="36000" type="passengerHW"/>
	</calibrator>
	<calibrator id="typeCalib16" edge="133397802.24" pos="0" type="passenger">
		<flow begin="18000" end="36000" type="passengerHW"/>
	</calibrator>
	<calibrator id="typeCalib17" edge="135475703" pos="0" type="passenger">
		<flow begin="18000" end="36000" type="passengerHW"/>
	</calibrator>
	<calibrator id="typeCalib18" edge="13866256#1" pos="0" type="passenger">
		<flow begin="18000" end="36000" type="passengerHW"/>
	</calibrator>
	<calibrator id="typeCalib19" edge="14017470" pos="0" type="passenger">
		<flow begin="18000" end="36000" type="passengerHW"/>
	</calibrator>
	<calibrator id="typeCalib20" edge="14017473" pos="0" type="passenger">
		<flow begin="18000" end="36000" type="passengerHW"/>
	</calibrator>
	<calibrator id="typeCalib21" edge="144691574#1" pos="0" type="passenger">
		<flow begin="18000" end="36000" type="passengerHW"/>
	</calibrator>
	<calibrator id="typeCalib22" edge="144691574#1.137" pos="0" type="passenger">
		<flow begin="18000" end="36000" type="passengerHW"/>
	</calibrator>
	<calibrator id="typeCalib23" edge="144691574#1.29" pos="0" type="passenger">
		<flow begin="18000" end="36000" type="passengerHW"/>
	</calibrator>
	<calibrator id="typeCalib24" edge="144691574#2" pos="0" type="passenger">
		<flow begin="18000" end="36000" type="passengerHW"/>
	</calibrator>
	<calibrator id="typeCalib25" edge="144691574#3" pos="0" type="passenger">
		<flow begin="18000" end="36000" type="passengerHW"/>
	</calibrator>
	<calibrator id="typeCalib26" edge="144691574#3.133" pos="0" type="passenger">
		<flow begin="18000" end="36000" type="passengerHW"/>
	</calibrator>
	<calibrator id="typeCalib27" edge="144691574#3.148" pos="0" type="passenger">
		<flow begin="18000" end="36000" type="passengerHW"/>
	</calibrator>
	<calibrator id="typeCalib28" edge="144691574#4" pos="0" type="passenger">
		<flow begin="18000" end="36000" type="passengerHW"/>
	</calibrator>
	<calibrator id="typeCalib29" edge="144691574#4.511" pos="0" type="passenger">
		<flow begin="18000" end="36000" type="passengerHW"/>
	</calibrator>
	<calibrator id="typeCalib30" edge="144691574#4.511.86" pos="0" type="passenger">
		<flow begin="18000" end="36000" type="passengerHW"/>
	</calibrator>
	<calibrator id="typeCalib31" edge="144691574#6" pos="0" type="passenger">
		<flow begin="18000" end="36000" type="passengerHW"/>
	</calibrator>
	<calibrator id="typeCalib32" edge="144691574#6.2179" pos="0" type="passenger">
		<flow begin="18000" end="36000" type="passengerHW"/>
	</calibrator>
	<calibrator id="typeCalib33" edge="144691574#6.2193" pos="0" type="passenger">
		<flow begin="18000" end="36000" type="passengerHW"/>
	</calibrator>
	<calibrator id="typeCalib34" edge="144691574#6.2325" pos="0" type="passenger">
		<flow begin="18000" end="36000" type="passengerHW"/>
	</calibrator>
	<calibrator id="typeCalib35" edge="144691574#6.347" pos="0" type="passenger">
		<flow begin="18000" end="36000" type="passengerHW"/>
	</calibrator>
	<calibrator id="typeCalib36" edge="144691574#6.357" pos="0" type="passenger">
		<flow begin="18000" end="36000" type="passengerHW"/>
	</calibrator>
	<calibrator id="typeCalib37" edge="144691574#6.500" pos="0" type="passenger">
		<flow begin="18000" end="36000" type="passengerHW"/>
	</calibrator>
	<calibrator id="typeCalib38" edge="144691574#6.516" pos="0" type="passenger">
		<flow begin="18000" end="36000" type="passengerHW"/>
	</calibrator>
	<calibrator id="typeCalib39" edge="15257850" pos="0" type="passenger">
		<flow begin="18000" end="36000" type="passengerHW"/>
	</calibrator>
	<calibrator id="typeCalib40" edge="157032158#1" pos="0" type="passenger">
		<flow begin="18000" end="36000" type="passengerHW"/>
	</calibrator>
	<calibrator id="typeCalib41" edge="158143939" pos="0" type="passenger">
		<flow begin="18000" end="36000" type="passengerHW"/>
	</calibrator>
	<calibrator id="typeCalib42" edge="164665649#0" pos="0" type="passenger">
		<flow begin="18000" end="36000" type="passengerHW"/>
	</calibrator>
	<calibrator id="typeCalib43" edge="164665649#1" pos="0" type="passenger">
		<flow begin="18000" end="36000" type="passengerHW"/>
	</calibrator>
	<calibrator id="typeCalib44" edge="164665655#1" pos="0" type="passenger">
		<flow begin="18000" end="36000" type="passengerHW"/>
	</calibrator>
	<calibrator id="typeCalib45" edge="164665655#2" pos="0" type="passenger">
		<flow begin="18000" end="36000" type="passengerHW"/>
	</calibrator>
	<calibrator id="typeCalib46" edge="164665655#3" pos="0" type="passenger">
		<flow begin="18000" end="36000" type="passengerHW"/>
	</calibrator>
	<calibrator id="typeCalib47" edge="164665655#4" pos="0" type="passenger">
		<flow begin="18000" end="36000" type="passengerHW"/>
	</calibrator>
	<calibrator id="typeCalib48" edge="164665655#5" pos="0" type="passenger">
		<flow begin="18000" end="36000" type="passengerHW"/>
	</calibrator>
	<calibrator id="typeCalib49" edge="164665656" pos="0" type="passenger">
		<flow begin="18000" end="36000" type="passengerHW"/>
	</calibrator>
	<calibrator id="typeCalib50" edge="170853848#2" pos="0" type="passenger">
		<flow begin="18000" end="36000" type="passengerHW"/>
	</calibrator>
	<calibrator id="typeCalib51" edge="170853848#3" pos="0" type="passenger">
		<flow begin="18000" end="36000" type="passengerHW"/>
	</calibrator>
	<calibrator id="typeCalib52" edge="170853848#4" pos="0" type="passenger">
		<flow begin="18000" end="36000" type="passengerHW"/>
	</calibrator>
	<calibrator id="typeCalib53" edge="170853848#5" pos="0" type="passenger">
		<flow begin="18000" end="36000" type="passengerHW"/>
	</calibrator>
	<calibrator id="typeCalib54" edge="170853848#6" pos="0" type="passenger">
		<flow begin="18000" end="36000" type="passengerHW"/>
	</calibrator>
	<calibrator id="typeCalib55" edge="171121248" pos="0" type="passenger">
		<flow begin="18000" end="36000" type="passengerHW"/>
	</calibrator>
	<calibrator id="typeCalib56" edge="171121261" pos="0" type="passenger">
		<flow begin="18000" end="36000" type="passengerHW"/>
	</calibrator>
	<calibrator id="typeCalib57" edge="171121264" pos="0" type="passenger">
		<flow begin="18000" end="36000" type="passengerHW"/>
	</calibrator>
	<calibrator id="typeCalib58" edge="171121268" pos="0" type="passenger">
		<flow begin="18000" end="36000" type="passengerHW"/>
	</calibrator>
	<calibrator id="typeCalib59" edge="171121275" pos="0" type="passenger">
		<flow begin="18000" end="36000" type="passengerHW"/>
	</calibrator>
	<calibrator id="typeCalib60" edge="174699607" pos="0" type="passenger">
		<flow begin="18000" end="36000" type="passengerHW"/>
	</calibrator>
	<calibrator id="typeCalib61" edge="22768206" pos="0" type="passenger">
		<flow begin="18000" end="36000" type="passengerHW"/>
	</calibrator>
	<calibrator id="typeCalib62" edge="22768208" pos="0" type="passenger">
		<flow begin="18000" end="36000" type="passengerHW"/>
	</calibrator>
	<calibrator id="typeCalib63" edge="243738295" pos="0" type="passenger">
		<flow begin="18000" end="36000" type="passengerHW"/>
	</calibrator>
	<calibrator id="typeCalib64" edge="243738296" pos="0" type="passenger">
		<flow begin="18000" end="36000" type="passengerHW"/>
	</calibrator>
	<calibrator id="typeCalib65" edge="243738297" pos="0" type="passenger">
		<flow begin="18000" end="36000" type="passengerHW"/>
	</calibrator>
	<calibrator id="typeCalib66" edge="243738302#1" pos="0" type="passenger">
		<flow begin="18000" end="36000" type="passengerHW"/>
	</calibrator>
	<calibrator id="typeCalib67" edge="243738307" pos="0" type="passenger">
		<flow begin="18000" end="36000" type="passengerHW"/>
	</calibrator>
	<calibrator id="typeCalib68" edge="243738308" pos="0" type="passenger">
		<flow begin="18000" end="36000" type="passengerHW"/>
	</calibrator>
	<calibrator id="typeCalib69" edge="245265271#0" pos="0" type="passenger">
		<flow begin="18000" end="36000" type="passengerHW"/>
	</calibrator>
	<calibrator id="typeCalib70" edge="260383064#0" pos="0" type="passenger">
		<flow begin="18000" end="36000" type="passengerHW"/>
	</calibrator>
	<calibrator id="typeCalib71" edge="260383064#1" pos="0" type="passenger">
		<flow begin="18000" end="36000" type="passengerHW"/>
	</calibrator>
	<calibrator id="typeCalib72" edge="306258895#0" pos="0" type="passenger">
		<flow begin="18000" end="36000" type="passengerHW"/>
	</calibrator>
	<calibrator id="typeCalib73" edge="306258895#0.1330" pos="0" type="passenger">
		<flow begin="18000" end="36000" type="passengerHW"/>
	</calibrator>
	<calibrator id="typeCalib74" edge="306258895#0.316" pos="0" type="passenger">
		<flow begin="18000" end="36000" type="passengerHW"/>
	</calibrator>
	<calibrator id="typeCalib75" edge="306258895#1" pos="0" type="passenger">
		<flow begin="18000" end="36000" type="passengerHW"/>
	</calibrator>
	<calibrator id="typeCalib76" edge="321942214#0" pos="0" type="passenger">
		<flow begin="18000" end="36000" type="passengerHW"/>
	</calibrator>
	<calibrator id="typeCalib77" edge="321942214#12" pos="0" type="passenger">
		<flow begin="18000" end="36000" type="passengerHW"/>
	</calibrator>
	<calibrator id="typeCalib78" edge="321942214#2" pos="0" type="passenger">
		<flow begin="18000" end="36000" type="passengerHW"/>
	</calibrator>
	<calibrator id="typeCalib79" edge="321942214#4" pos="0" type="passenger">
		<flow begin="18000" end="36000" type="passengerHW"/>
	</calibrator>
	<calibrator id="typeCalib80" edge="321942214#6" pos="0" type="passenger">
		<flow begin="18000" end="36000" type="passengerHW"/>
	</calibrator>
	<calibrator id="typeCalib81" edge="321942214#7" pos="0" type="passenger">
		<flow begin="18000" end="36000" type="passengerHW"/>
	</calibrator>
	<calibrator id="typeCalib82" edge="321942214#9" pos="0" type="passenger">
		<flow begin="18000" end="36000" type="passengerHW"/>
	</calibrator>
	<calibrator id="typeCalib83" edge="322777962#3" pos="0" type="passenger">
		<flow begin="18000" end="36000" type="passengerHW"/>
	</calibrator>
	<calibrator id="typeCalib84" edge="332949672" pos="0" type="passenger">
		<flow begin="18000" end="36000" type="passengerHW"/>
	</calibrator>
	<calibrator id="typeCalib85" edge="332963118" pos="0" type="passenger">
		<flow begin="18000" end="36000" type="passengerHW"/>
	</calibrator>
	<calibrator id="typeCalib86" edge="340094350" pos="0" type="passenger">
		<flow begin="18000" end="36000" type="passengerHW"/>
	</calibrator>
	<calibrator id="typeCalib87" edge="35824613" pos="0" type="passenger">
		<flow begin="18000" end="36000" type="passengerHW"/>
	</calibrator>
	<calibrator id="typeCalib88" edge="361813520#0" pos="0" type="passenger">
		<flow begin="18000" end="36000" type="passengerHW"/>
	</calibrator>
	<calibrator id="typeCalib89" edge="361813520#12" pos="0" type="passenger">
		<flow begin="18000" end="36000" type="passengerHW"/>
	</calibrator>
	<calibrator id="typeCalib90" edge="361813520#14" pos="0" type="passenger">
		<flow begin="18000" end="36000" type="passengerHW"/>
	</calibrator>
	<calibrator id="typeCalib91" edge="361813520#2" pos="0" type="passenger">
		<flow begin="18000" end="36000" type="passengerHW"/>
	</calibrator>
	<calibrator id="typeCalib92" edge="361813520#4" pos="0" type="passenger">
		<flow begin="18000" end="36000" type="passengerHW"/>
	</calibrator>
	<calibrator id="typeCalib93" edge="361813520#6" pos="0" type="passenger">
		<flow begin="18000" end="36000" type="passengerHW"/>
	</calibrator>
	<calibrator id="typeCalib94" edge="361813520#7" pos="0" type="passenger">
		<flow begin="18000" end="36000" type="passengerHW"/>
	</calibrator>
	<calibrator id="typeCalib95" edge="361813520#9" pos="0" type="passenger">
		<flow begin="18000" end="36000" type="passengerHW"/>
	</calibrator>
	<calibrator id="typeCalib96" edge="367065138" pos="0" type="passenger">
		<flow begin="18000" end="36000" type="passengerHW"/>
	</calibrator>
	<calibrator id="typeCalib97" edge="367065793" pos="0" type="passenger">
		<flow begin="18000" end="36000" type="passengerHW"/>
	</calibrator>
	<calibrator id="typeCalib98" edge="367067754" pos="0" type="passenger">
		<flow begin="18000" end="36000" type="passengerHW"/>
	</calibrator>
	<calibrator id="typeCalib99" edge="367068002" pos="0" type="passenger">
		<flow begin="18000" end="36000" type="passengerHW"/>
	</calibrator>
	<calibrator id="typeCalib100" edge="367192355" pos="0" type="passenger">
		<flow begin="18000" end="36000" type="passengerHW"/>
	</calibrator>
	<calibrator id="typeCalib101" edge="371527759#0.2791" pos="0" type="passenger">
		<flow begin="18000" end="36000" type="passengerHW"/>
	</calibrator>
	<calibrator id="typeCalib102" edge="371527759#0.3598" pos="0" type="passenger">
		<flow begin="18000" end="36000" type="passengerHW"/>
	</calibrator>
	<calibrator id="typeCalib103" edge="371527759#0.3718" pos="0" type="passenger">
		<flow begin="18000" end="36000" type="passengerHW"/>
	</calibrator>
	<calibrator id="typeCalib104" edge="371527759#0.3743" pos="0" type="passenger">
		<flow begin="18000" end="36000" type="passengerHW"/>
	</calibrator>
	<calibrator id="typeCalib105" edge="371527759#0.5413" pos="0" type="passenger">
		<flow begin="18000" end="36000" type="passengerHW"/>
	</calibrator>
	<calibrator id="typeCalib106" edge="371527759#0.5424" pos="0" type="passenger">
		<flow begin="18000" end="36000" type="passengerHW"/>
	</calibrator>
	<calibrator id="typeCalib107" edge="371527759#0.5568" pos="0" type="passenger">
		<flow begin="18000" end="36000" type="passengerHW"/>
	</calibrator>
	<calibrator id="typeCalib108" edge="371527759#0.5584" pos="0" type="passenger">
		<flow begin="18000" end="36000" type="passengerHW"/>
	</calibrator>
	<calibrator id="typeCalib109" edge="38008150" pos="0" type="passenger">
		<flow begin="18000" end="36000" type="passengerHW"/>
	</calibrator>
	<calibrator id="typeCalib110" edge="38008151" pos="0" type="passenger">
		<flow begin="18000" end="36000" type="passengerHW"/>
	</calibrator>
	<calibrator id="typeCalib111" edge="38008152" pos="0" type="passenger">
		<flow begin="18000" end="36000" type="passengerHW"/>
	</calibrator>
	<calibrator id="typeCalib112" edge="38008153" pos="0" type="passenger">
		<flow begin="18000" end="36000" type="passengerHW"/>
	</calibrator>
	<calibrator id="typeCalib113" edge="38008156" pos="0" type="passenger">
		<flow begin="18000" end="36000" type="passengerHW"/>
	</calibrator>
	<calibrator id="typeCalib114" edge="402084473" pos="0" type="passenger">
		<flow begin="18000" end="36000" type="passengerHW"/>
	</calibrator>
	<calibrator id="typeCalib115" edge="402084477" pos="0" type="passenger">
		<flow begin="18000" end="36000" type="passengerHW"/>
	</calibrator>
	<calibrator id="typeCalib116" edge="402084478" pos="0" type="passenger">
		<flow begin="18000" end="36000" type="passengerHW"/>
	</calibrator>
	<calibrator id="typeCalib117" edge="425811432" pos="0" type="passenger">
		<flow begin="18000" end="36000" type="passengerHW"/>
	</calibrator>
	<calibrator id="typeCalib118" edge="427907033" pos="0" type="passenger">
		<flow begin="18000" end="36000" type="passengerHW"/>
	</calibrator>
	<calibrator id="typeCalib119" edge="428230611" pos="0" type="passenger">
		<flow begin="18000" end="36000" type="passengerHW"/>
	</calibrator>
	<calibrator id="typeCalib120" edge="428230615" pos="0" type="passenger">
		<flow begin="18000" end="36000" type="passengerHW"/>
	</calibrator>
	<calibrator id="typeCalib121" edge="428230632" pos="0" type="passenger">
		<flow begin="18000" end="36000" type="passengerHW"/>
	</calibrator>
	<calibrator id="typeCalib122" edge="428230639" pos="0" type="passenger">
		<flow begin="18000" end="36000" type="passengerHW"/>
	</calibrator>
	<calibrator id="typeCalib123" edge="428237371" pos="0" type="passenger">
		<flow begin="18000" end="36000" type="passengerHW"/>
	</calibrator>
	<calibrator id="typeCalib124" edge="428246932" pos="0" type="passenger">
		<flow begin="18000" end="36000" type="passengerHW"/>
	</calibrator>
	<calibrator id="typeCalib125" edge="431431041" pos="0" type="passenger">
		<flow begin="18000" end="36000" type="passengerHW"/>
	</calibrator>
	<calibrator id="typeCalib126" edge="431431042" pos="0" type="passenger">
		<flow begin="18000" end="36000" type="passengerHW"/>
	</calibrator>
	<calibrator id="typeCalib127" edge="431431055" pos="0" type="passenger">
		<flow begin="18000" end="36000" type="passengerHW"/>
	</calibrator>
	<calibrator id="typeCalib128" edge="431431063" pos="0" type="passenger">
		<flow begin="18000" end="36000" type="passengerHW"/>
	</calibrator>
	<calibrator id="typeCalib129" edge="431431065" pos="0" type="passenger">
		<flow begin="18000" end="36000" type="passengerHW"/>
	</calibrator>
	<calibrator id="typeCalib130" edge="435753589" pos="0" type="passenger">
		<flow begin="18000" end="36000" type="passengerHW"/>
	</calibrator>
	<calibrator id="typeCalib131" edge="435753590" pos="0" type="passenger">
		<flow begin="18000" end="36000" type="passengerHW"/>
	</calibrator>
	<calibrator id="typeCalib132" edge="436165683#0" pos="0" type="passenger">
		<flow begin="18000" end="36000" type="passengerHW"/>
	</calibrator>
	<calibrator id="typeCalib133" edge="452336723" pos="0" type="passenger">
		<flow begin="18000" end="36000" type="passengerHW"/>
	</calibrator>
	<calibrator id="typeCalib134" edge="452336725#3" pos="0" type="passenger">
		<flow begin="18000" end="36000" type="passengerHW"/>
	</calibrator>
	<calibrator id="typeCalib135" edge="452336725#3.159" pos="0" type="passenger">
		<flow begin="18000" end="36000" type="passengerHW"/>
	</calibrator>
	<calibrator id="typeCalib136" edge="452336725#3.82" pos="0" type="passenger">
		<flow begin="18000" end="36000" type="passengerHW"/>
	</calibrator>
	<calibrator id="typeCalib137" edge="452336725#5" pos="0" type="passenger">
		<flow begin="18000" end="36000" type="passengerHW"/>
	</calibrator>
	<calibrator id="typeCalib138" edge="452336725#5.46" pos="0" type="passenger">
		<flow begin="18000" end="36000" type="passengerHW"/>
	</calibrator>
	<calibrator id="typeCalib139" edge="452336725#5.63" pos="0" type="passenger">
		<flow begin="18000" end="36000" type="passengerHW"/>
	</calibrator>
	<calibrator id="typeCalib140" edge="452336725#6" pos="0" type="passenger">
		<flow begin="18000" end="36000" type="passengerHW"/>
	</calibrator>
	<calibrator id="typeCalib141" edge="452336725#7" pos="0" type="passenger">
		<flow begin="18000" end="36000" type="passengerHW"/>
	</calibrator>
	<calibrator id="typeCalib142" edge="452336725#7.152" pos="0" type="passenger">
		<flow begin="18000" end="36000" type="passengerHW"/>
	</calibrator>
	<calibrator id="typeCalib143" edge="452336725#7.16" pos="0" type="passenger">
		<flow begin="18000" end="36000" type="passengerHW"/>
	</calibrator>
	<calibrator id="typeCalib144" edge="452336725#8" pos="0" type="passenger">
		<flow begin="18000" end="36000" type="passengerHW"/>
	</calibrator>
	<calibrator id="typeCalib145" edge="452336728" pos="0" type="passenger">
		<flow begin="18000" end="36000" type="passengerHW"/>
	</calibrator>
	<calibrator id="typeCalib146" edge="452336740" pos="0" type="passenger">
		<flow begin="18000" end="36000" type="passengerHW"/>
	</calibrator>
	<calibrator id="typeCalib147" edge="4712855" pos="0" type="passenger">
		<flow begin="18000" end="36000" type="passengerHW"/>
	</calibrator>
	<calibrator id="typeCalib148" edge="4712862.117" pos="0" type="passenger">
		<flow begin="18000" end="36000" type="passengerHW"/>
	</calibrator>
	<calibrator id="typeCalib149" edge="4712866" pos="0" type="passenger">
		<flow begin="18000" end="36000" type="passengerHW"/>
	</calibrator>
	<calibrator id="typeCalib150" edge="4712870" pos="0" type="passenger">
		<flow begin="18000" end="36000" type="passengerHW"/>
	</calibrator>
	<calibrator id="typeCalib151" edge="4712882" pos="0" type="passenger">
		<flow begin="18000" end="36000" type="passengerHW"/>
	</calibrator>
	<calibrator id="typeCalib152" edge="4712882.10" pos="0" type="passenger">
		<flow begin="18000" end="36000" type="passengerHW"/>
	</calibrator>
	<calibrator id="typeCalib153" edge="4712885#0" pos="0" type="passenger">
		<flow begin="18000" end="36000" type="passengerHW"/>
	</calibrator>
	<calibrator id="typeCalib154" edge="4722443" pos="0" type="passenger">
		<flow begin="18000" end="36000" type="passengerHW"/>
	</calibrator>
	<calibrator id="typeCalib155" edge="4729558" pos="0" type="passenger">
		<flow begin="18000" end="36000" type="passengerHW"/>
	</calibrator>
	<calibrator id="typeCalib156" edge="4743829" pos="0" type="passenger">
		<flow begin="18000" end="36000" type="passengerHW"/>
	</calibrator>
	<calibrator id="typeCalib157" edge="4748960" pos="0" type="passenger">
		<flow begin="18000" end="36000" type="passengerHW"/>
	</calibrator>
	<calibrator id="typeCalib158" edge="4748960.15" pos="0" type="passenger">
		<flow begin="18000" end="36000" type="passengerHW"/>
	</calibrator>
	<calibrator id="typeCalib159" edge="4748962" pos="0" type="passenger">
		<flow begin="18000" end="36000" type="passengerHW"/>
	</calibrator>
	<calibrator id="typeCalib160" edge="4748963" pos="0" type="passenger">
		<flow begin="18000" end="36000" type="passengerHW"/>
	</calibrator>
	<calibrator id="typeCalib161" edge="4748969" pos="0" type="passenger">
		<flow begin="18000" end="36000" type="passengerHW"/>
	</calibrator>
	<calibrator id="typeCalib162" edge="4748973" pos="0" type="passenger">
		<flow begin="18000" end="36000" type="passengerHW"/>
	</calibrator>
	<calibrator id="typeCalib163" edge="4748974" pos="0" type="passenger">
		<flow begin="18000" end="36000" type="passengerHW"/>
	</calibrator>
	<calibrator id="typeCalib164" edge="4748976" pos="0" type="passenger">
		<flow begin="18000" end="36000" type="passengerHW"/>
	</calibrator>
	<calibrator id="typeCalib165" edge="4748987" pos="0" type="passenger">
		<flow begin="18000" end="36000" type="passengerHW"/>
	</calibrator>
	<calibrator id="typeCalib166" edge="4748988" pos="0" type="passenger">
		<flow begin="18000" end="36000" type="passengerHW"/>
	</calibrator>
	<calibrator id="typeCalib167" edge="4748990#0" pos="0" type="passenger">
		<flow begin="18000" end="36000" type="passengerHW"/>
	</calibrator>
	<calibrator id="typeCalib168" edge="4748992" pos="0" type="passenger">
		<flow begin="18000" end="36000" type="passengerHW"/>
	</calibrator>
	<calibrator id="typeCalib169" edge="4748998" pos="0" type="passenger">
		<flow begin="18000" end="36000" type="passengerHW"/>
	</calibrator>
	<calibrator id="typeCalib170" edge="4749000" pos="0" type="passenger">
		<flow begin="18000" end="36000" type="passengerHW"/>
	</calibrator>
	<calibrator id="typeCalib171" edge="4749002" pos="0" type="passenger">
		<flow begin="18000" end="36000" type="passengerHW"/>
	</calibrator>
	<calibrator id="typeCalib172" edge="4749003" pos="0" type="passenger">
		<flow begin="18000" end="36000" type="passengerHW"/>
	</calibrator>
	<calibrator id="typeCalib173" edge="4749004" pos="0" type="passenger">
		<flow begin="18000" end="36000" type="passengerHW"/>
	</calibrator>
	<calibrator id="typeCalib174" edge="4749006" pos="0" type="passenger">
		<flow begin="18000" end="36000" type="passengerHW"/>
	</calibrator>
	<calibrator id="typeCalib175" edge="4749013" pos="0" type="passenger">
		<flow begin="18000" end="36000" type="passengerHW"/>
	</calibrator>
	<calibrator id="typeCalib176" edge="4749017" pos="0" type="passenger">
		<flow begin="18000" end="36000" type="passengerHW"/>
	</calibrator>
	<calibrator id="typeCalib177" edge="4755208#1" pos="0" type="passenger">
		<flow begin="18000" end="36000" type="passengerHW"/>
	</calibrator>
	<calibrator id="typeCalib178" edge="4755209#0" pos="0" type="passenger">
		<flow begin="18000" end="36000" type="passengerHW"/>
	</calibrator>
	<calibrator id="typeCalib179" edge="4755219#0" pos="0" type="passenger">
		<flow begin="18000" end="36000" type="passengerHW"/>
	</calibrator>
	<calibrator id="typeCalib180" edge="4755239" pos="0" type="passenger">
		<flow begin="18000" end="36000" type="passengerHW"/>
	</calibrator>
	<calibrator id="typeCalib181" edge="4755249" pos="0" type="passenger">
		<flow begin="18000" end="36000" type="passengerHW"/>
	</calibrator>
	<calibrator id="typeCalib182" edge="4755256" pos="0" type="passenger">
		<flow begin="18000" end="36000" type="passengerHW"/>
	</calibrator>
	<calibrator id="typeCalib183" edge="4848517" pos="0" type="passenger">
		<flow begin="18000" end="36000" type="passengerHW"/>
	</calibrator>
	<calibrator id="typeCalib184" edge="4848633" pos="0" type="passenger">
		<flow begin="18000" end="36000" type="passengerHW"/>
	</calibrator>
	<calibrator id="typeCalib185" edge="486260018" pos="0" type="passenger">
		<flow begin="18000" end="36000" type="passengerHW"/>
	</calibrator>
	<calibrator id="typeCalib186" edge="4910867" pos="0" type="passenger">
		<flow begin="18000" end="36000" type="passengerHW"/>
	</calibrator>
	<calibrator id="typeCalib187" edge="4910870" pos="0" type="passenger">
		<flow begin="18000" end="36000" type="passengerHW"/>
	</calibrator>
	<calibrator id="typeCalib188" edge="4910873" pos="0" type="passenger">
		<flow begin="18000" end="36000" type="passengerHW"/>
	</calibrator>
	<calibrator id="typeCalib189" edge="4910875" pos="0" type="passenger">
		<flow begin="18000" end="36000" type="passengerHW"/>
	</calibrator>
	<calibrator id="typeCalib190" edge="49394449" pos="0" type="passenger">
		<flow begin="18000" end="36000" type="passengerHW"/>
	</calibrator>
	<calibrator id="typeCalib191" edge="50329619#0" pos="0" type="passenger">
		<flow begin="18000" end="36000" type="passengerHW"/>
	</calibrator>
	<calibrator id="typeCalib192" edge="50329619#1" pos="0" type="passenger">
		<flow begin="18000" end="36000" type="passengerHW"/>
	</calibrator>
	<calibrator id="typeCalib193" edge="50329622" pos="0" type="passenger">
		<flow begin="18000" end="36000" type="passengerHW"/>
	</calibrator>
	<calibrator id="typeCalib194" edge="50329623" pos="0" type="passenger">
		<flow begin="18000" end="36000" type="passengerHW"/>
	</calibrator>
	<calibrator id="typeCalib195" edge="5130429" pos="0" type="passenger">
		<flow begin="18000" end="36000" type="passengerHW"/>
	</calibrator>
	<calibrator id="typeCalib196" edge="531618831" pos="0" type="passenger">
		<flow begin="18000" end="36000" type="passengerHW"/>
	</calibrator>
	<calibrator id="typeCalib197" edge="531638072#0" pos="0" type="passenger">
		<flow begin="18000" end="36000" type="passengerHW"/>
	</calibrator>
	<calibrator id="typeCalib198" edge="531678155" pos="0" type="passenger">
		<flow begin="18000" end="36000" type="passengerHW"/>
	</calibrator>
	<calibrator id="typeCalib199" edge="533110451" pos="0" type="passenger">
		<flow begin="18000" end="36000" type="passengerHW"/>
	</calibrator>
	<calibrator id="typeCalib200" edge="548267481" pos="0" type="passenger">
		<flow begin="18000" end="36000" type="passengerHW"/>
	</calibrator>
	<calibrator id="typeCalib201" edge="548267482#0" pos="0" type="passenger">
		<flow begin="18000" end="36000" type="passengerHW"/>
	</calibrator>
	<calibrator id="typeCalib202" edge="548597249" pos="0" type="passenger">
		<flow begin="18000" end="36000" type="passengerHW"/>
	</calibrator>
	<calibrator id="typeCalib203" edge="548597250" pos="0" type="passenger">
		<flow begin="18000" end="36000" type="passengerHW"/>
	</calibrator>
	<calibrator id="typeCalib204" edge="548597253" pos="0" type="passenger">
		<flow begin="18000" end="36000" type="passengerHW"/>
	</calibrator>